38
Ar
Ar      1.008361125057741  -0.769633980599810  -0.559171817871104
Ar     -0.509096148186660   1.089162554039077   1.493257400206362
Ar     -0.509096148167876  -1.083602442204281  -1.497297057921385
Ar     -0.094670886737197  -0.752474668428163   0.546704847883737
Ar     -0.094670886726391   0.287419747651941  -0.884587025672089
Ar      0.437484411864528   0.587876417632846   1.809297572314977
Ar     -0.509096148166006   1.089162553975334  -1.493257400259897
Ar     -0.509096148182748  -1.758865693549359   0.567876927204396
Ar     -1.051607156787838  -0.983328451416249   0.000000000013715
Ar     -1.051607156782287   0.795529428237470  -0.577985961926859
Ar      1.008361125048545   0.293974021705785   0.904759006905073
Ar     -1.051607156790282   0.795529428262142   0.577985961878354
Ar     -1.051607156780777  -0.303865202559347  -0.935200931379506
Ar     -1.051607156793712  -0.303865202519426   0.935200931377932
Ar      0.433986584080560  -0.477568670182377  -1.469805233980068
Ar      0.433986584078187   1.250291010396660  -0.908389591474013
Ar     -0.094670886738626   0.287419747689702   0.884587025658510
Ar      1.008361125061060   0.293974021667163  -0.904759006903675
Ar      1.008361125055377   0.951319917798398  -0.000000000013331
Ar      0.437484411867450  -1.539080442423734   1.118207395495087
Ar     -0.509096148171778   1.756741919810773  -0.574413230685629
Ar      0.437484411889554   0.587876417555611  -1.809297572334021
Ar      0.437484411882917  -1.539080442471467  -1.118207395423336
Ar      1.584073743697131  -0.000000000001384   0.000000000010955
Ar      0.437484411878189   1.902408049704833  -0.000000000037579
Ar      0.470745098913714  -0.000000000000411   0.000000000003256
Ar     -0.509096148188586  -1.083602442140365   1.497297057960599
Ar      0.433986584069463  -1.545444680531982   0.000000000035987
Ar      0.433986584065622   1.250291010435437   0.908389591426644
Ar     -0.509096148164505  -0.003436338133663  -1.848264300362580
Ar     -0.509096148179723   1.756741919835293   0.574413230603596
Ar     -0.509096148174893  -1.758865693573600  -0.567876927136356
Ar      0.433986584060231  -0.477568670119635   1.469805234006457
Ar     -0.509096148190070  -0.003436338054765   1.848264300355686
Ar     -0.094670886729635  -0.752474668451500  -0.546704847852925
Ar     -0.094670886731947   0.930109841538431  -0.000000000020507
Ar      1.008361125050007  -0.769633980575941   0.559171817917904
Ar     -0.631627748248736   0.000000000000551  -0.000000000004368
